"prog_tracers","ocean_mod","temp"
horizontal-advection-scheme = mdppm
vertical-advection-scheme = mdppm
restart_file  = ocean_temp_salt.res.nc
const_init_tracer = t
const_init_value = 15.0
psom_limit=.true.
/
